
No compatibility mode selected!


Circuit: * project04: l06-p22

Doing analysis at TEMP = 27.000000 and TNOM = 27.000000


No. of Data Rows : 1
                              * project04: l06-p22
                              DC transfer characteristic  Sun Mar 20 12:52:31  2022
--------------------------------------------------------------------------------
Index   v-sweep         v(a)            v(b)            v(c)            
--------------------------------------------------------------------------------
0	5.000000e+01	5.000000e+01	3.233945e+01	3.233945e+01	

                              * project04: l06-p22
                              DC transfer characteristic  Sun Mar 20 12:52:31  2022
--------------------------------------------------------------------------------
Index   v-sweep         v(d)            v(e)            v(f)            
--------------------------------------------------------------------------------
0	5.000000e+01	4.013761e+01	4.013761e+01	4.013761e+01	

                              * project04: l06-p22
                              DC transfer characteristic  Sun Mar 20 12:52:31  2022
--------------------------------------------------------------------------------
Index   v-sweep         v(g)            v(h)            v(i)            
--------------------------------------------------------------------------------
0	5.000000e+01	1.000000e+02	0.000000e+00	0.000000e+00	

                              * project04: l06-p22
                              DC transfer characteristic  Sun Mar 20 12:52:31  2022
--------------------------------------------------------------------------------
Index   v-sweep         v(a)-v(b)       v(c)-v(d)       v(f)-v(g)       
--------------------------------------------------------------------------------
0	5.000000e+01	1.766055e+01	-7.79817e+00	-5.98624e+01	

                              * project04: l06-p22
                              DC transfer characteristic  Sun Mar 20 12:52:31  2022
--------------------------------------------------------------------------------
Index   v-sweep         v(h)-v(c)       v(i)-v(e)       
--------------------------------------------------------------------------------
0	5.000000e+01	-3.23394e+01	-4.01376e+01	

                              * project04: l06-p22
                              DC transfer characteristic  Sun Mar 20 12:52:31  2022
--------------------------------------------------------------------------------
Index   v-sweep         vdr1#branch     vdr2#branch     vdr3#branch     
--------------------------------------------------------------------------------
0	5.000000e+01	1.766055e+00	-3.89908e-01	1.995413e+00	

                              * project04: l06-p22
                              DC transfer characteristic  Sun Mar 20 12:52:31  2022
--------------------------------------------------------------------------------
Index   v-sweep         vdr4#branch     vdr5#branch     
--------------------------------------------------------------------------------
0	5.000000e+01	-2.15596e+00	-1.60550e+00	


Total analysis time (seconds) = 0

Total elapsed time (seconds) = 0.004 

Total DRAM available = 3889.320 MB.
DRAM currently available =  607.145 MB.
Maximum ngspice program size =   24.078 MB.
Current ngspice program size =   11.156 MB.

Shared ngspice pages =    9.375 MB.
Text (code) pages =    5.270 MB.
Stack = 0 bytes.
Library pages =    2.039 MB.

