
No compatibility mode selected!


Circuit: * project04: l06-p26

Doing analysis at TEMP = 27.000000 and TNOM = 27.000000


No. of Data Rows : 1
                              * project04: l06-p26
                              DC transfer characteristic  Sun Mar 20 15:07:12  2022
--------------------------------------------------------------------------------
Index   v-sweep         v(a)            v(b)            v(c)            
--------------------------------------------------------------------------------
0	5.000000e+01	5.000000e+01	1.306846e+01	2.126909e+01	

                              * project04: l06-p26
                              DC transfer characteristic  Sun Mar 20 15:07:12  2022
--------------------------------------------------------------------------------
Index   v-sweep         v(d)            v(e)            v(f)            
--------------------------------------------------------------------------------
0	5.000000e+01	2.126909e+01	2.126909e+01	2.713019e+01	

                              * project04: l06-p26
                              DC transfer characteristic  Sun Mar 20 15:07:12  2022
--------------------------------------------------------------------------------
Index   v-sweep         v(g)            v(h)            v(i)            
--------------------------------------------------------------------------------
0	5.000000e+01	2.713019e+01	1.306846e+01	2.126909e+01	

                              * project04: l06-p26
                              DC transfer characteristic  Sun Mar 20 15:07:12  2022
--------------------------------------------------------------------------------
Index   v-sweep         v(j)            v(k)            v(l)            
--------------------------------------------------------------------------------
0	5.000000e+01	2.713019e+01	1.787063e+01	2.107207e+01	

                              * project04: l06-p26
                              DC transfer characteristic  Sun Mar 20 15:07:12  2022
--------------------------------------------------------------------------------
Index   v-sweep         v(m)            
--------------------------------------------------------------------------------
0	5.000000e+01	2.376457e+01	

                              * project04: l06-p26
                              DC transfer characteristic  Sun Mar 20 15:07:12  2022
--------------------------------------------------------------------------------
Index   v-sweep         v(a)-v(f)       v(j)-v(m)       v(g)-v(e)       
--------------------------------------------------------------------------------
0	5.000000e+01	2.286981e+01	3.365621e+00	5.861107e+00	

                              * project04: l06-p26
                              DC transfer characteristic  Sun Mar 20 15:07:12  2022
--------------------------------------------------------------------------------
Index   v-sweep         v(m)-v(l)       v(i)-v(l)       v(c)-v(b)       
--------------------------------------------------------------------------------
0	5.000000e+01	2.692497e+00	1.970120e-01	8.200624e+00	

                              * project04: l06-p26
                              DC transfer characteristic  Sun Mar 20 15:07:12  2022
--------------------------------------------------------------------------------
Index   v-sweep         v(l)-v(k)       v(b)            v(h)-v(k)       
--------------------------------------------------------------------------------
0	5.000000e+01	3.201445e+00	1.306846e+01	-4.80217e+00	

                              * project04: l06-p26
                              DC transfer characteristic  Sun Mar 20 15:07:12  2022
--------------------------------------------------------------------------------
Index   v-sweep         vdr1#branch     vdr2#branch     vdr3#branch     
--------------------------------------------------------------------------------
0	5.000000e+01	3.267115e-01	-3.36562e-02	2.930553e-01	

                              * project04: l06-p26
                              DC transfer characteristic  Sun Mar 20 15:07:12  2022
--------------------------------------------------------------------------------
Index   v-sweep         vdr4#branch     vdr5#branch     vdr6#branch     
--------------------------------------------------------------------------------
0	5.000000e+01	-1.97012e-02	-2.73354e-01	5.335741e-02	


Total analysis time (seconds) = 0

Total elapsed time (seconds) = 0.006 

Total DRAM available = 3889.312 MB.
DRAM currently available = 2129.527 MB.
Maximum ngspice program size =   24.211 MB.
Current ngspice program size =   11.203 MB.

Shared ngspice pages =    9.422 MB.
Text (code) pages =    5.270 MB.
Stack = 0 bytes.
Library pages =    2.172 MB.

